Version 4
SHEET 1 2228 1896
WIRE 1040 848 1040 800
WIRE 1184 848 1040 848
WIRE 704 864 704 800
WIRE 448 880 448 800
WIRE 448 880 416 880
WIRE 704 912 704 864
WIRE 704 912 592 912
WIRE 736 912 704 912
WIRE 816 912 736 912
WIRE 592 928 592 912
WIRE 816 928 816 912
WIRE 1184 928 1184 848
WIRE 288 960 -32 960
WIRE 528 960 288 960
WIRE 240 992 112 992
WIRE 336 992 240 992
WIRE 736 992 736 912
WIRE 736 992 608 992
WIRE 800 992 736 992
WIRE 1008 1008 976 1008
WIRE 1184 1008 1184 928
WIRE 1184 1008 1088 1008
WIRE 1184 1056 1184 1008
WIRE 1376 1056 1184 1056
WIRE 1600 1056 1376 1056
WIRE 1824 1056 1600 1056
WIRE 2000 1056 1824 1056
WIRE 336 1072 336 992
WIRE 880 1072 880 960
WIRE 880 1072 336 1072
WIRE 592 1104 592 1056
WIRE 592 1120 592 1104
WIRE 816 1120 816 1056
WIRE 816 1120 736 1120
WIRE 1184 1120 1184 1056
WIRE 1376 1120 1376 1056
WIRE 1600 1120 1600 1056
WIRE 1824 1120 1824 1056
WIRE -32 1200 -32 960
WIRE 112 1200 112 992
WIRE 272 1200 272 1152
WIRE 416 1200 416 880
WIRE 816 1232 816 1120
WIRE 848 1232 816 1232
WIRE 976 1232 976 1008
WIRE 976 1232 848 1232
WIRE 1056 1232 976 1232
WIRE 1104 1232 1056 1232
WIRE -32 1296 -32 1280
WIRE 112 1296 112 1280
WIRE 112 1296 -32 1296
WIRE 272 1296 272 1280
WIRE 272 1296 112 1296
WIRE 416 1296 416 1280
WIRE 416 1296 272 1296
WIRE 1632 1296 1632 1200
WIRE 1632 1296 1600 1296
WIRE 1824 1296 1632 1296
WIRE 1824 1312 1824 1296
WIRE 1856 1312 1856 1200
WIRE 1856 1312 1824 1312
WIRE 272 1328 272 1296
WIRE 1056 1344 1056 1232
WIRE 1296 1344 1296 1232
WIRE 1296 1344 1056 1344
WIRE 1472 1344 1472 1232
WIRE 1472 1344 1296 1344
WIRE 1696 1344 1696 1232
WIRE 1696 1344 1472 1344
WIRE 1824 1376 1824 1312
WIRE 1824 1408 1824 1376
WIRE 1824 1408 1760 1408
WIRE 416 1456 416 1296
WIRE 2000 1456 2000 1120
WIRE 2000 1456 416 1456
FLAG 704 864 BUS01
IOPIN 704 864 BiDir
FLAG 848 1232 BUS03
IOPIN 848 1232 BiDir
FLAG 1184 928 BUS04
IOPIN 1184 928 BiDir
FLAG 1824 1376 BUS09
IOPIN 1824 1376 BiDir
FLAG 272 1152 VDD
IOPIN 272 1152 BiDir
FLAG 272 1328 0
FLAG 240 992 vinp
FLAG 592 1104 BUS02
IOPIN 592 1104 BiDir
FLAG 288 960 vinn
DATAFLAG 1744 1056 "$"
DATAFLAG 624 912 "$"
DATAFLAG 976 1232 "$"
DATAFLAG 512 1184 "$"
DATAFLAG 176 992 "$"
SYMBOL nMOS_currentMirror 688 1152 R0
SYMATTR InstName X1
SYMBOL CS_nMOS_4x_A 1136 1152 R0
SYMATTR InstName X2
SYMBOL DP_nMOS_4x_A 1552 1152 R0
SYMATTR InstName X6
SYMBOL DP_nMOS_4x_B 1776 1152 R0
SYMATTR InstName X7
SYMBOL voltage 272 1184 R0
SYMATTR InstName V1
SYMATTR Value {VDD}
SYMBOL pMOS_currentMirror_array 528 672 R0
WINDOW 0 -142 -59 Bottom 2
SYMATTR InstName X12
SYMBOL CS_nMOS_4x_B 1328 1152 R0
SYMATTR InstName X3
SYMBOL DP_pMOS_4x_A 528 944 R0
SYMATTR InstName X13
SYMBOL DP_pMOS_4x_B 880 944 M0
SYMATTR InstName X14
SYMBOL chip_vss 1680 1408 R0
SYMATTR InstName X22
SYMBOL current 416 1200 R0
SYMATTR InstName I1
SYMATTR Value {IBIAS}
SYMBOL voltage 112 1184 R0
WINDOW 123 24 118 Left 2
WINDOW 3 1 189 Left 2
SYMATTR Value2 AC 1
SYMATTR InstName V2
SYMATTR Value PULSE({vhigh} {vlow} 0 10m 10m 0 20m)
SYMBOL cap 1984 1056 R0
SYMATTR InstName C1
SYMATTR Value {Cload}
SYMBOL res 1104 992 R90
WINDOW 0 0 56 VBottom 2
WINDOW 3 32 56 VTop 2
SYMATTR InstName R1
SYMATTR Value 1K
SYMBOL voltage -32 1184 R0
WINDOW 123 24 118 Left 2
WINDOW 3 -8 152 Left 2
SYMATTR Value2 AC 1
SYMATTR InstName V3
SYMATTR Value PULSE({vlow} {vhigh} 0 10m 10m 0 20m)
TEXT 536 1576 Left 2 !.global VDD\n.param VDD = 2.5\n.inc transistor_models_tsmc025_public.inc
TEXT 536 1680 Left 2 !.tran 100m
TEXT 536 1504 Left 2 ;Note: Do not connect a BUS directly to VDD or VSS even with a jumper. \nUse the Chip_VDD and Chip_VSS.
TEXT 1184 1576 Left 2 !.param vhigh=2.5 vlow =0.0\n.param IBIAS = 100u Cload = 1n
TEXT 360 472 Left 4 ;Two-Stage Miller-Compensated OTA with pMOS Input Stage
TEXT 624 1016 Left 4 ;M1
TEXT 744 1016 Left 4 ;M2
TEXT 752 1288 Left 4 ;M4
TEXT 536 1288 Left 4 ;M3
TEXT 1200 1120 Left 4 ;M5a
TEXT 1400 1128 Left 4 ;M5b
TEXT 1632 1128 Left 4 ;M5c
TEXT 1856 1128 Left 4 ;M5d
TEXT 1072 752 Left 4 ;M6
TEXT 720 816 Left 4 ;M7
TEXT 344 744 Left 4 ;M8
TEXT 1856 1128 Left 4 ;M5d
TEXT 744 1016 Left 4 ;M2
TEXT 632 536 Left 4 ;Measuring the Gm of the first stage
TEXT 1184 1640 Left 2 !.step param IBIAS list 63u 100u 200u
